  Page 1                                    Thu Mar 07 10:43:29 2024

  ******************************************************************
  *                           E P A N E T                          *
  *                   Hydraulic and Water Quality                  *
  *                   Analysis for Pipe Networks                   *
  *                         Version 2.2                            *
  ******************************************************************
  
  Analysis begun Thu Mar 07 10:43:29 2024

  Analysis ended Thu Mar 07 10:43:29 2024
